// -*- C++ -*-
// File generated by PyFoam - sorry for the ugliness

FoamFile
{
 version 2.0;
 format ascii;
 class dictionary;
 location "system";
 object controlDict;
}

application pimpleFoam;

startFrom latestTime;

startTime 0;

stopAt endTime;

endTime 4000;

deltaT 0.005;

writeControl runTime;

writeInterval 50;

purgeWrite 2;

writeFormat ascii;

writePrecision 6;

writeCompression no;
timeFormat general;

timePrecision 6;

runTimeModifiable yes;
adjustTimeStep no;
maxCo 0.5;

functions
{

//  #include "probes"
//  #include "kBudget"

  fieldAverage
  {
    type fieldAverage;
    libs
      (
        "libfieldFunctionObjects.so"
      );
    enabled yes;
    writeControl writeTime;
    fields
      (
        U

        {
          mean yes;
          prime2Mean yes;
          base time;

        }
        p
        {
          mean yes;
          prime2Mean no;
          base time;
        }
      );
  }
}

libs
  (
    "libOpenFOAM.so"
  ); 	// ************************************************************************* //

